
 OpenBabel01152418483D

 39 35  0  0  0  0  0  0  0  0999 V2000
    8.8800   -1.0600   -2.4000 C   0  0  0  0  0  2  0  0  0  0  0  0
    7.5400   -0.7600   -3.0700 C   0  0  0  0  0  1  0  0  0  0  0  0
    9.3400   -2.4900   -2.9100 C   0  0  0  0  0  2  0  0  0  0  0  0
    8.1800   -3.3210   -2.9770 O   0  0  0  0  0  0  0  0  0  0  0  0
    8.4210   -4.2290   -3.1580 H   0  0  0  0  0  0  0  0  0  0  0  0
    6.4600   -0.1400   -5.3000 C   0  0  0  0  0  2  0  0  0  0  0  0
    5.8900   -1.5100   -5.6600 C   0  0  0  0  0  1  0  0  0  0  0  0
    6.9400    0.6300   -6.5500 C   0  0  0  0  0  2  0  0  0  0  0  0
    6.7410    2.1340   -6.5480 C   0  0  0  0  0  2  0  0  0  0  0  0
    8.0980    2.7670   -6.3250 C   0  0  0  0  0  0  0  0  0  0  0  0
    8.4770    3.7300   -7.0850 O   0  0  0  0  0  0  0  0  0  0  0  0
    8.7320    2.4400   -5.2860 O   0  0  0  0  0  1  0  0  0  0  0  0
    6.3900   -4.0000   -5.8800 C   0  0  0  0  0  2  0  0  0  0  0  0
    7.6200   -4.8200   -5.5400 C   0  0  0  0  0  1  0  0  0  0  0  0
    5.7100   -4.5200   -7.2000 C   0  0  0  0  0  2  0  0  0  0  0  0
    6.7550   -4.9020   -8.2770 C   0  0  0  0  0  2  0  0  0  0  0  0
    7.1490   -3.7720   -9.2590 C   0  0  0  0  0  0  0  0  0  0  0  0
    6.6630   -3.6960  -10.3970 O   0  0  0  0  0  0  0  0  0  0  0  0
    7.8650   -2.8570   -8.7820 O   0  0  0  0  0  1  0  0  0  0  0  0
   11.9400   -7.0200   -3.1500 C   0  0  0  0  0  2  0  0  0  0  0  0
   13.1300   -7.1300   -4.0700 C   0  0  0  0  0  1  0  0  0  0  0  0
   12.1500   -7.9400   -1.9400 C   0  0  0  0  0  2  0  0  0  0  0  0
   12.6370   -7.1990   -0.7360 C   0  0  0  0  0  0  0  0  0  0  0  0
   11.9630   -7.4740    0.5040 C   0  0  0  0  0  3  0  0  0  0  0  0
   13.7450   -6.2760   -0.7320 C   0  0  0  0  0  3  0  0  0  0  0  0
   12.2580   -6.7500    1.6250 C   0  0  0  0  0  3  0  0  0  0  0  0
   14.0070   -5.5250    0.4360 C   0  0  0  0  0  3  0  0  0  0  0  0
   13.3150   -5.7720    1.5800 C   0  0  0  0  0  0  0  0  0  0  0  0
   13.6940   -4.9610    2.5670 O   0  0  0  0  0  0  0  0  0  0  0  0
   13.1620   -5.1810    3.3370 H   0  0  0  0  0  0  0  0  0  0  0  0
   15.2700   -6.0700   -4.8300 C   0  0  0  0  0  2  0  0  0  0  0  0
   16.3800   -7.0000   -4.5200 C   0  0  0  0  0  1  0  0  0  0  0  0
   15.6700   -4.5900   -4.6500 C   0  0  0  0  0  2  0  0  0  0  0  0
   16.0640   -3.8790   -5.9150 C   0  0  0  0  0  2  0  0  0  0  0  0
   17.4960   -4.0270   -6.2080 C   0  0  0  0  0  0  0  0  0  0  0  0
   18.3780   -3.5680   -5.4730 O   0  0  0  0  0  0  0  0  0  0  0  0
   17.9370   -4.7690   -7.1690 N   0  0  0  0  0  0  0  0  0  0  0  0
   17.3830   -5.2500   -7.8670 H   0  0  0  0  0  0  0  0  0  0  0  0
   18.9410   -4.7160   -7.2620 H   0  0  0  0  0  0  0  0  0  0  0  0
  2  1  1  0  0  0  0
  3  1  1  0  0  0  0
  4  3  1  0  0  0  0
  5  4  1  0  0  0  0
  7  6  1  0  0  0  0
  8  9  1  0  0  0  0
  8  6  1  0  0  0  0
  9 10  1  0  0  0  0
 10 12  1  0  0  0  0
 11 10  2  0  0  0  0
 13 14  1  0  0  0  0
 15 13  1  0  0  0  0
 16 15  1  0  0  0  0
 17 19  1  0  0  0  0
 17 16  1  0  0  0  0
 18 17  2  0  0  0  0
 20 22  1  0  0  0  0
 21 20  1  0  0  0  0
 22 23  1  0  0  0  0
 23 25  2  0  0  0  0
 23 24  1  0  0  0  0
 24 26  2  0  0  0  0
 25 27  1  0  0  0  0
 27 28  2  0  0  0  0
 28 26  1  0  0  0  0
 28 29  1  0  0  0  0
 29 30  1  0  0  0  0
 31 33  1  0  0  0  0
 31 32  1  0  0  0  0
 34 33  1  0  0  0  0
 35 34  1  0  0  0  0
 35 36  2  0  0  0  0
 37 35  1  0  0  0  0
 38 37  1  0  0  0  0
 39 37  1  0  0  0  0
M  END
$$$$

 OpenBabel01152418483D

 39 35  0  0  0  0  0  0  0  0999 V2000
    8.8800   -1.0600   -2.4000 C   0  0  0  0  0  2  0  0  0  0  0  0
    7.5400   -0.7600   -3.0700 C   0  0  0  0  0  1  0  0  0  0  0  0
    9.3400   -2.4900   -2.9100 C   0  0  0  0  0  2  0  0  0  0  0  0
    8.1650   -3.2730   -3.1240 O   0  0  0  0  0  0  0  0  0  0  0  0
    8.3910   -4.1840   -3.3120 H   0  0  0  0  0  0  0  0  0  0  0  0
    6.4600   -0.1400   -5.3000 C   0  0  0  0  0  2  0  0  0  0  0  0
    5.8900   -1.5100   -5.6600 C   0  0  0  0  0  1  0  0  0  0  0  0
    6.9400    0.6300   -6.5500 C   0  0  0  0  0  2  0  0  0  0  0  0
    6.1670    1.8800   -6.9250 C   0  0  0  0  0  2  0  0  0  0  0  0
    4.9150    1.4350   -7.6500 C   0  0  0  0  0  0  0  0  0  0  0  0
    3.7960    1.4140   -7.0210 O   0  0  0  0  0  1  0  0  0  0  0  0
    4.9900    1.2690   -8.8970 O   0  0  0  0  0  0  0  0  0  0  0  0
    6.3900   -4.0000   -5.8800 C   0  0  0  0  0  2  0  0  0  0  0  0
    7.6200   -4.8200   -5.5400 C   0  0  0  0  0  1  0  0  0  0  0  0
    5.7100   -4.5200   -7.2000 C   0  0  0  0  0  2  0  0  0  0  0  0
    4.2710   -5.0330   -6.9460 C   0  0  0  0  0  2  0  0  0  0  0  0
    4.1630   -6.4090   -6.2460 C   0  0  0  0  0  0  0  0  0  0  0  0
    3.1300   -6.7660   -5.6610 O   0  0  0  0  0  1  0  0  0  0  0  0
    5.1210   -7.1980   -6.4390 O   0  0  0  0  0  0  0  0  0  0  0  0
   11.9400   -7.0200   -3.1500 C   0  0  0  0  0  2  0  0  0  0  0  0
   13.1300   -7.1300   -4.0700 C   0  0  0  0  0  1  0  0  0  0  0  0
   12.1500   -7.9400   -1.9400 C   0  0  0  0  0  2  0  0  0  0  0  0
   12.6030   -7.1940   -0.7260 C   0  0  0  0  0  0  0  0  0  0  0  0
   11.6940   -7.1660    0.3880 C   0  0  0  0  0  3  0  0  0  0  0  0
   13.8850   -6.5480   -0.5900 C   0  0  0  0  0  3  0  0  0  0  0  0
   11.9720   -6.4030    1.4870 C   0  0  0  0  0  3  0  0  0  0  0  0
   14.1300   -5.7450    0.5480 C   0  0  0  0  0  3  0  0  0  0  0  0
   13.2260   -5.6980    1.5620 C   0  0  0  0  0  0  0  0  0  0  0  0
   13.6260   -4.8840    2.5380 O   0  0  0  0  0  0  0  0  0  0  0  0
   12.9420   -4.8900    3.2130 H   0  0  0  0  0  0  0  0  0  0  0  0
   15.2700   -6.0700   -4.8300 C   0  0  0  0  0  2  0  0  0  0  0  0
   16.3800   -7.0000   -4.5200 C   0  0  0  0  0  1  0  0  0  0  0  0
   15.6700   -4.5900   -4.6500 C   0  0  0  0  0  2  0  0  0  0  0  0
   15.6200   -3.7610   -5.9030 C   0  0  0  0  0  2  0  0  0  0  0  0
   14.3760   -2.9880   -6.0050 C   0  0  0  0  0  0  0  0  0  0  0  0
   13.2980   -3.3960   -5.5560 O   0  0  0  0  0  0  0  0  0  0  0  0
   14.3460   -1.7700   -6.4340 N   0  0  0  0  0  0  0  0  0  0  0  0
   15.1200   -1.2440   -6.8210 H   0  0  0  0  0  0  0  0  0  0  0  0
   13.4050   -1.4060   -6.4870 H   0  0  0  0  0  0  0  0  0  0  0  0
  2  1  1  0  0  0  0
  3  1  1  0  0  0  0
  4  3  1  0  0  0  0
  5  4  1  0  0  0  0
  7  6  1  0  0  0  0
  8  6  1  0  0  0  0
  9  8  1  0  0  0  0
 10 11  1  0  0  0  0
 10  9  1  0  0  0  0
 12 10  2  0  0  0  0
 13 14  1  0  0  0  0
 15 16  1  0  0  0  0
 15 13  1  0  0  0  0
 16 17  1  0  0  0  0
 17 18  1  0  0  0  0
 19 17  2  0  0  0  0
 20 22  1  0  0  0  0
 21 20  1  0  0  0  0
 22 23  1  0  0  0  0
 23 25  2  0  0  0  0
 23 24  1  0  0  0  0
 24 26  2  0  0  0  0
 25 27  1  0  0  0  0
 26 28  1  0  0  0  0
 27 28  2  0  0  0  0
 28 29  1  0  0  0  0
 29 30  1  0  0  0  0
 31 33  1  0  0  0  0
 31 32  1  0  0  0  0
 34 33  1  0  0  0  0
 35 34  1  0  0  0  0
 35 36  2  0  0  0  0
 37 35  1  0  0  0  0
 38 37  1  0  0  0  0
 39 37  1  0  0  0  0
M  END
$$$$

 OpenBabel01152418483D

 39 35  0  0  0  0  0  0  0  0999 V2000
    8.8800   -1.0600   -2.4000 C   0  0  0  0  0  2  0  0  0  0  0  0
    7.5400   -0.7600   -3.0700 C   0  0  0  0  0  1  0  0  0  0  0  0
    9.3400   -2.4900   -2.9100 C   0  0  0  0  0  2  0  0  0  0  0  0
    8.1770   -3.3140   -2.9980 O   0  0  0  0  0  0  0  0  0  0  0  0
    8.4160   -4.2230   -3.1800 H   0  0  0  0  0  0  0  0  0  0  0  0
    6.4600   -0.1400   -5.3000 C   0  0  0  0  0  2  0  0  0  0  0  0
    5.8900   -1.5100   -5.6600 C   0  0  0  0  0  1  0  0  0  0  0  0
    6.9400    0.6300   -6.5500 C   0  0  0  0  0  2  0  0  0  0  0  0
    6.0300    1.7250   -7.0730 C   0  0  0  0  0  2  0  0  0  0  0  0
    6.3390    1.9040   -8.5430 C   0  0  0  0  0  0  0  0  0  0  0  0
    5.6370    2.7220   -9.2410 O   0  0  0  0  0  0  0  0  0  0  0  0
    7.3930    1.3730   -8.9870 O   0  0  0  0  0  1  0  0  0  0  0  0
    6.3900   -4.0000   -5.8800 C   0  0  0  0  0  2  0  0  0  0  0  0
    7.6200   -4.8200   -5.5400 C   0  0  0  0  0  1  0  0  0  0  0  0
    5.7100   -4.5200   -7.2000 C   0  0  0  0  0  2  0  0  0  0  0  0
    4.3690   -5.2400   -6.9150 C   0  0  0  0  0  2  0  0  0  0  0  0
    4.4450   -6.7820   -6.8090 C   0  0  0  0  0  0  0  0  0  0  0  0
    4.2740   -7.5150   -7.7950 O   0  0  0  0  0  0  0  0  0  0  0  0
    4.8420   -7.2360   -5.7080 O   0  0  0  0  0  1  0  0  0  0  0  0
   11.9400   -7.0200   -3.1500 C   0  0  0  0  0  2  0  0  0  0  0  0
   13.1300   -7.1300   -4.0700 C   0  0  0  0  0  1  0  0  0  0  0  0
   12.1500   -7.9400   -1.9400 C   0  0  0  0  0  2  0  0  0  0  0  0
   12.6460   -7.2010   -0.7390 C   0  0  0  0  0  0  0  0  0  0  0  0
   11.8700   -7.3360    0.4650 C   0  0  0  0  0  3  0  0  0  0  0  0
   13.8510   -6.4090   -0.7010 C   0  0  0  0  0  3  0  0  0  0  0  0
   12.1790   -6.5960    1.5720 C   0  0  0  0  0  3  0  0  0  0  0  0
   14.1260   -5.6360    0.4500 C   0  0  0  0  0  3  0  0  0  0  0  0
   13.3420   -5.7470    1.5550 C   0  0  0  0  0  0  0  0  0  0  0  0
   13.7510   -4.9360    2.5300 O   0  0  0  0  0  0  0  0  0  0  0  0
   13.1520   -5.0570    3.2720 H   0  0  0  0  0  0  0  0  0  0  0  0
   15.2700   -6.0700   -4.8300 C   0  0  0  0  0  2  0  0  0  0  0  0
   16.3800   -7.0000   -4.5200 C   0  0  0  0  0  1  0  0  0  0  0  0
   15.6700   -4.5900   -4.6500 C   0  0  0  0  0  2  0  0  0  0  0  0
   16.1760   -3.9120   -5.8930 C   0  0  0  0  0  2  0  0  0  0  0  0
   17.5510   -3.4210   -5.7340 C   0  0  0  0  0  0  0  0  0  0  0  0
   17.9250   -2.3290   -6.1780 O   0  0  0  0  0  0  0  0  0  0  0  0
   18.4240   -4.0220   -4.9960 N   0  0  0  0  0  0  0  0  0  0  0  0
   18.3100   -4.9120   -4.5250 H   0  0  0  0  0  0  0  0  0  0  0  0
   19.3300   -3.5800   -5.0390 H   0  0  0  0  0  0  0  0  0  0  0  0
  2  1  1  0  0  0  0
  3  1  1  0  0  0  0
  4  3  1  0  0  0  0
  5  4  1  0  0  0  0
  7  6  1  0  0  0  0
  8  6  1  0  0  0  0
  9  8  1  0  0  0  0
 10  9  1  0  0  0  0
 11 10  2  0  0  0  0
 12 10  1  0  0  0  0
 13 14  1  0  0  0  0
 15 16  1  0  0  0  0
 15 13  1  0  0  0  0
 16 17  1  0  0  0  0
 17 19  1  0  0  0  0
 18 17  2  0  0  0  0
 20 22  1  0  0  0  0
 21 20  1  0  0  0  0
 22 23  1  0  0  0  0
 23 25  2  0  0  0  0
 23 24  1  0  0  0  0
 24 26  2  0  0  0  0
 25 27  1  0  0  0  0
 27 28  2  0  0  0  0
 28 26  1  0  0  0  0
 28 29  1  0  0  0  0
 29 30  1  0  0  0  0
 31 33  1  0  0  0  0
 31 32  1  0  0  0  0
 34 35  1  0  0  0  0
 34 33  1  0  0  0  0
 35 37  1  0  0  0  0
 36 35  2  0  0  0  0
 37 38  1  0  0  0  0
 39 37  1  0  0  0  0
M  END
$$$$

 OpenBabel01152418483D

 39 35  0  0  0  0  0  0  0  0999 V2000
    8.8800   -1.0600   -2.4000 C   0  0  0  0  0  2  0  0  0  0  0  0
    7.5400   -0.7600   -3.0700 C   0  0  0  0  0  1  0  0  0  0  0  0
    9.3400   -2.4900   -2.9100 C   0  0  0  0  0  2  0  0  0  0  0  0
    8.1800   -3.3210   -2.9770 O   0  0  0  0  0  0  0  0  0  0  0  0
    8.4210   -4.2290   -3.1590 H   0  0  0  0  0  0  0  0  0  0  0  0
    6.4600   -0.1400   -5.3000 C   0  0  0  0  0  2  0  0  0  0  0  0
    5.8900   -1.5100   -5.6600 C   0  0  0  0  0  1  0  0  0  0  0  0
    6.9400    0.6300   -6.5500 C   0  0  0  0  0  2  0  0  0  0  0  0
    6.0960    0.4980   -7.8030 C   0  0  0  0  0  2  0  0  0  0  0  0
    6.9790   -0.0900   -8.8810 C   0  0  0  0  0  0  0  0  0  0  0  0
    7.6240   -1.1750   -8.6460 O   0  0  0  0  0  1  0  0  0  0  0  0
    6.9090    0.4140  -10.0350 O   0  0  0  0  0  0  0  0  0  0  0  0
    6.3900   -4.0000   -5.8800 C   0  0  0  0  0  2  0  0  0  0  0  0
    7.6200   -4.8200   -5.5400 C   0  0  0  0  0  1  0  0  0  0  0  0
    5.7100   -4.5200   -7.2000 C   0  0  0  0  0  2  0  0  0  0  0  0
    4.3470   -5.1990   -6.9200 C   0  0  0  0  0  2  0  0  0  0  0  0
    4.3510   -6.7460   -6.9400 C   0  0  0  0  0  0  0  0  0  0  0  0
    3.3100   -7.4010   -7.1020 O   0  0  0  0  0  0  0  0  0  0  0  0
    5.4820   -7.2900   -6.9410 O   0  0  0  0  0  1  0  0  0  0  0  0
   11.9400   -7.0200   -3.1500 C   0  0  0  0  0  2  0  0  0  0  0  0
   13.1300   -7.1300   -4.0700 C   0  0  0  0  0  1  0  0  0  0  0  0
   12.1500   -7.9400   -1.9400 C   0  0  0  0  0  2  0  0  0  0  0  0
   13.3180   -7.5260   -1.1030 C   0  0  0  0  0  0  0  0  0  0  0  0
   13.2760   -6.1990   -0.5530 C   0  0  0  0  0  3  0  0  0  0  0  0
   14.4420   -8.3730   -0.7860 C   0  0  0  0  0  3  0  0  0  0  0  0
   14.3560   -5.6950    0.1170 C   0  0  0  0  0  3  0  0  0  0  0  0
   15.5530   -7.8130   -0.1140 C   0  0  0  0  0  3  0  0  0  0  0  0
   15.5020   -6.5350    0.3470 C   0  0  0  0  0  0  0  0  0  0  0  0
   16.6430   -6.1840    0.9420 O   0  0  0  0  0  0  0  0  0  0  0  0
   16.5430   -5.2730    1.2340 H   0  0  0  0  0  0  0  0  0  0  0  0
   15.2700   -6.0700   -4.8300 C   0  0  0  0  0  2  0  0  0  0  0  0
   16.3800   -7.0000   -4.5200 C   0  0  0  0  0  1  0  0  0  0  0  0
   15.6700   -4.5900   -4.6500 C   0  0  0  0  0  2  0  0  0  0  0  0
   17.0900   -4.2650   -5.0230 C   0  0  0  0  0  2  0  0  0  0  0  0
   17.2400   -4.0180   -6.4630 C   0  0  0  0  0  0  0  0  0  0  0  0
   17.0270   -2.9130   -6.9760 O   0  0  0  0  0  0  0  0  0  0  0  0
   17.7450   -4.8910   -7.2700 N   0  0  0  0  0  0  0  0  0  0  0  0
   18.0090   -5.8430   -7.0460 H   0  0  0  0  0  0  0  0  0  0  0  0
   17.7280   -4.5780   -8.2300 H   0  0  0  0  0  0  0  0  0  0  0  0
  2  1  1  0  0  0  0
  3  1  1  0  0  0  0
  4  3  1  0  0  0  0
  5  4  1  0  0  0  0
  7  6  1  0  0  0  0
  8  6  1  0  0  0  0
  9  8  1  0  0  0  0
 10 11  1  0  0  0  0
 10  9  1  0  0  0  0
 12 10  2  0  0  0  0
 13 14  1  0  0  0  0
 15 16  1  0  0  0  0
 15 13  1  0  0  0  0
 17 16  1  0  0  0  0
 18 17  2  0  0  0  0
 19 17  1  0  0  0  0
 20 22  1  0  0  0  0
 21 20  1  0  0  0  0
 22 23  1  0  0  0  0
 23 25  2  0  0  0  0
 23 24  1  0  0  0  0
 24 26  2  0  0  0  0
 25 27  1  0  0  0  0
 26 28  1  0  0  0  0
 27 28  2  0  0  0  0
 28 29  1  0  0  0  0
 29 30  1  0  0  0  0
 31 33  1  0  0  0  0
 31 32  1  0  0  0  0
 34 33  1  0  0  0  0
 35 34  1  0  0  0  0
 36 35  2  0  0  0  0
 37 38  1  0  0  0  0
 37 35  1  0  0  0  0
 39 37  1  0  0  0  0
M  END
$$$$

 OpenBabel01152418483D

 39 35  0  0  0  0  0  0  0  0999 V2000
    8.8800   -1.0600   -2.4000 C   0  0  0  0  0  2  0  0  0  0  0  0
    7.5400   -0.7600   -3.0700 C   0  0  0  0  0  1  0  0  0  0  0  0
    9.3400   -2.4900   -2.9100 C   0  0  0  0  0  2  0  0  0  0  0  0
    8.1780   -3.3170   -2.9880 O   0  0  0  0  0  0  0  0  0  0  0  0
    8.4180   -4.2260   -3.1700 H   0  0  0  0  0  0  0  0  0  0  0  0
    6.4600   -0.1400   -5.3000 C   0  0  0  0  0  2  0  0  0  0  0  0
    5.8900   -1.5100   -5.6600 C   0  0  0  0  0  1  0  0  0  0  0  0
    6.9400    0.6300   -6.5500 C   0  0  0  0  0  2  0  0  0  0  0  0
    6.4540    2.0590   -6.7040 C   0  0  0  0  0  2  0  0  0  0  0  0
    7.1460    2.8860   -5.6430 C   0  0  0  0  0  0  0  0  0  0  0  0
    8.3730    2.6420   -5.3520 O   0  0  0  0  0  0  0  0  0  0  0  0
    6.5420    3.9030   -5.2080 O   0  0  0  0  0  1  0  0  0  0  0  0
    6.3900   -4.0000   -5.8800 C   0  0  0  0  0  2  0  0  0  0  0  0
    7.6200   -4.8200   -5.5400 C   0  0  0  0  0  1  0  0  0  0  0  0
    5.7100   -4.5200   -7.2000 C   0  0  0  0  0  2  0  0  0  0  0  0
    6.7540   -5.0050   -8.2360 C   0  0  0  0  0  2  0  0  0  0  0  0
    7.2570   -3.9340   -9.2330 C   0  0  0  0  0  0  0  0  0  0  0  0
    7.5390   -2.7830   -8.8690 O   0  0  0  0  0  1  0  0  0  0  0  0
    7.5120   -4.3430  -10.3920 O   0  0  0  0  0  0  0  0  0  0  0  0
   11.9400   -7.0200   -3.1500 C   0  0  0  0  0  2  0  0  0  0  0  0
   13.1300   -7.1300   -4.0700 C   0  0  0  0  0  1  0  0  0  0  0  0
   12.1500   -7.9400   -1.9400 C   0  0  0  0  0  2  0  0  0  0  0  0
   13.3130   -7.5220   -1.0990 C   0  0  0  0  0  0  0  0  0  0  0  0
   13.2670   -6.1920   -0.5540 C   0  0  0  0  0  3  0  0  0  0  0  0
   14.4370   -8.3660   -0.7730 C   0  0  0  0  0  3  0  0  0  0  0  0
   14.3440   -5.6850    0.1190 C   0  0  0  0  0  3  0  0  0  0  0  0
   15.5440   -7.8030   -0.0980 C   0  0  0  0  0  3  0  0  0  0  0  0
   15.4900   -6.5230    0.3580 C   0  0  0  0  0  0  0  0  0  0  0  0
   16.6270   -6.1680    0.9570 O   0  0  0  0  0  0  0  0  0  0  0  0
   16.5250   -5.2570    1.2450 H   0  0  0  0  0  0  0  0  0  0  0  0
   15.2700   -6.0700   -4.8300 C   0  0  0  0  0  2  0  0  0  0  0  0
   16.3800   -7.0000   -4.5200 C   0  0  0  0  0  1  0  0  0  0  0  0
   15.6700   -4.5900   -4.6500 C   0  0  0  0  0  2  0  0  0  0  0  0
   17.0890   -4.2650   -5.0250 C   0  0  0  0  0  2  0  0  0  0  0  0
   17.2370   -4.0140   -6.4640 C   0  0  0  0  0  0  0  0  0  0  0  0
   16.9870   -2.9190   -6.9800 O   0  0  0  0  0  0  0  0  0  0  0  0
   17.7760   -4.8690   -7.2680 N   0  0  0  0  0  0  0  0  0  0  0  0
   18.0730   -5.8110   -7.0420 H   0  0  0  0  0  0  0  0  0  0  0  0
   17.7520   -4.5590   -8.2290 H   0  0  0  0  0  0  0  0  0  0  0  0
  2  1  1  0  0  0  0
  3  1  1  0  0  0  0
  4  3  1  0  0  0  0
  5  4  1  0  0  0  0
  7  6  1  0  0  0  0
  8  6  1  0  0  0  0
  9  8  1  0  0  0  0
  9 10  1  0  0  0  0
 10 11  2  0  0  0  0
 10 12  1  0  0  0  0
 13 14  1  0  0  0  0
 15 13  1  0  0  0  0
 16 15  1  0  0  0  0
 17 18  1  0  0  0  0
 17 16  1  0  0  0  0
 19 17  2  0  0  0  0
 20 22  1  0  0  0  0
 21 20  1  0  0  0  0
 22 23  1  0  0  0  0
 23 25  2  0  0  0  0
 23 24  1  0  0  0  0
 24 26  2  0  0  0  0
 25 27  1  0  0  0  0
 26 28  1  0  0  0  0
 27 28  2  0  0  0  0
 28 29  1  0  0  0  0
 29 30  1  0  0  0  0
 31 33  1  0  0  0  0
 31 32  1  0  0  0  0
 34 33  1  0  0  0  0
 35 34  1  0  0  0  0
 36 35  2  0  0  0  0
 37 38  1  0  0  0  0
 37 35  1  0  0  0  0
 39 37  1  0  0  0  0
M  END
$$$$

 OpenBabel01152418483D

 39 35  0  0  0  0  0  0  0  0999 V2000
    8.8800   -1.0600   -2.4000 C   0  0  0  0  0  2  0  0  0  0  0  0
    7.5400   -0.7600   -3.0700 C   0  0  0  0  0  1  0  0  0  0  0  0
    9.3400   -2.4900   -2.9100 C   0  0  0  0  0  2  0  0  0  0  0  0
    8.1770   -3.3150   -2.9960 O   0  0  0  0  0  0  0  0  0  0  0  0
    8.4160   -4.2240   -3.1780 H   0  0  0  0  0  0  0  0  0  0  0  0
    6.4600   -0.1400   -5.3000 C   0  0  0  0  0  2  0  0  0  0  0  0
    5.8900   -1.5100   -5.6600 C   0  0  0  0  0  1  0  0  0  0  0  0
    6.9400    0.6300   -6.5500 C   0  0  0  0  0  2  0  0  0  0  0  0
    6.6340    2.1150   -6.6010 C   0  0  0  0  0  2  0  0  0  0  0  0
    7.9250    2.8510   -6.3150 C   0  0  0  0  0  0  0  0  0  0  0  0
    8.2080    3.9100   -6.9830 O   0  0  0  0  0  0  0  0  0  0  0  0
    8.5900    2.4930   -5.3060 O   0  0  0  0  0  1  0  0  0  0  0  0
    6.3900   -4.0000   -5.8800 C   0  0  0  0  0  2  0  0  0  0  0  0
    7.6200   -4.8200   -5.5400 C   0  0  0  0  0  1  0  0  0  0  0  0
    5.7100   -4.5200   -7.2000 C   0  0  0  0  0  2  0  0  0  0  0  0
    4.2430   -4.9540   -6.9620 C   0  0  0  0  0  2  0  0  0  0  0  0
    3.9830   -5.7590   -5.6670 C   0  0  0  0  0  0  0  0  0  0  0  0
    4.5470   -6.8410   -5.4440 O   0  0  0  0  0  0  0  0  0  0  0  0
    3.2940   -5.1800   -4.7910 O   0  0  0  0  0  1  0  0  0  0  0  0
   11.9400   -7.0200   -3.1500 C   0  0  0  0  0  2  0  0  0  0  0  0
   13.1300   -7.1300   -4.0700 C   0  0  0  0  0  1  0  0  0  0  0  0
   12.1500   -7.9400   -1.9400 C   0  0  0  0  0  2  0  0  0  0  0  0
   13.2960   -7.5060   -1.0840 C   0  0  0  0  0  0  0  0  0  0  0  0
   14.3530   -8.4620   -0.8920 C   0  0  0  0  0  3  0  0  0  0  0  0
   13.4260   -6.2000   -0.4840 C   0  0  0  0  0  3  0  0  0  0  0  0
   15.3750   -8.1960   -0.0240 C   0  0  0  0  0  3  0  0  0  0  0  0
   14.4800   -5.9670    0.4280 C   0  0  0  0  0  3  0  0  0  0  0  0
   15.4350   -6.9130    0.6280 C   0  0  0  0  0  0  0  0  0  0  0  0
   16.3360   -6.5170    1.5280 O   0  0  0  0  0  0  0  0  0  0  0  0
   16.9720   -7.2310    1.6280 H   0  0  0  0  0  0  0  0  0  0  0  0
   15.2700   -6.0700   -4.8300 C   0  0  0  0  0  2  0  0  0  0  0  0
   16.3800   -7.0000   -4.5200 C   0  0  0  0  0  1  0  0  0  0  0  0
   15.6700   -4.5900   -4.6500 C   0  0  0  0  0  2  0  0  0  0  0  0
   17.0910   -4.2660   -5.0210 C   0  0  0  0  0  2  0  0  0  0  0  0
   17.2450   -4.0260   -6.4610 C   0  0  0  0  0  0  0  0  0  0  0  0
   16.9920   -2.9350   -6.9870 O   0  0  0  0  0  0  0  0  0  0  0  0
   17.7920   -4.8850   -7.2560 N   0  0  0  0  0  0  0  0  0  0  0  0
   18.0920   -5.8230   -7.0200 H   0  0  0  0  0  0  0  0  0  0  0  0
   17.7710   -4.5820   -8.2190 H   0  0  0  0  0  0  0  0  0  0  0  0
  2  1  1  0  0  0  0
  3  1  1  0  0  0  0
  4  3  1  0  0  0  0
  5  4  1  0  0  0  0
  7  6  1  0  0  0  0
  8  6  1  0  0  0  0
  9  8  1  0  0  0  0
  9 10  1  0  0  0  0
 10 12  1  0  0  0  0
 11 10  2  0  0  0  0
 13 14  1  0  0  0  0
 15 16  1  0  0  0  0
 15 13  1  0  0  0  0
 16 17  1  0  0  0  0
 17 18  2  0  0  0  0
 17 19  1  0  0  0  0
 20 22  1  0  0  0  0
 21 20  1  0  0  0  0
 22 23  1  0  0  0  0
 23 24  2  0  0  0  0
 23 25  1  0  0  0  0
 24 26  1  0  0  0  0
 25 27  2  0  0  0  0
 26 28  2  0  0  0  0
 27 28  1  0  0  0  0
 28 29  1  0  0  0  0
 29 30  1  0  0  0  0
 31 33  1  0  0  0  0
 31 32  1  0  0  0  0
 34 33  1  0  0  0  0
 35 34  1  0  0  0  0
 36 35  2  0  0  0  0
 37 38  1  0  0  0  0
 37 35  1  0  0  0  0
 39 37  1  0  0  0  0
M  END
$$$$

 OpenBabel01152418483D

 39 35  0  0  0  0  0  0  0  0999 V2000
    8.8800   -1.0600   -2.4000 C   0  0  0  0  0  2  0  0  0  0  0  0
    7.5400   -0.7600   -3.0700 C   0  0  0  0  0  1  0  0  0  0  0  0
    9.3400   -2.4900   -2.9100 C   0  0  0  0  0  2  0  0  0  0  0  0
    8.1670   -3.2880   -3.0790 O   0  0  0  0  0  0  0  0  0  0  0  0
    8.3990   -4.1980   -3.2650 H   0  0  0  0  0  0  0  0  0  0  0  0
    6.4600   -0.1400   -5.3000 C   0  0  0  0  0  2  0  0  0  0  0  0
    5.8900   -1.5100   -5.6600 C   0  0  0  0  0  1  0  0  0  0  0  0
    6.9400    0.6300   -6.5500 C   0  0  0  0  0  2  0  0  0  0  0  0
    6.2890    1.9730   -6.8200 C   0  0  0  0  0  2  0  0  0  0  0  0
    4.7980    1.7390   -6.9230 C   0  0  0  0  0  0  0  0  0  0  0  0
    4.0060    2.3440   -6.1140 O   0  0  0  0  0  1  0  0  0  0  0  0
    4.3760    1.0900   -7.9190 O   0  0  0  0  0  0  0  0  0  0  0  0
    6.3900   -4.0000   -5.8800 C   0  0  0  0  0  2  0  0  0  0  0  0
    7.6200   -4.8200   -5.5400 C   0  0  0  0  0  1  0  0  0  0  0  0
    5.7100   -4.5200   -7.2000 C   0  0  0  0  0  2  0  0  0  0  0  0
    6.7550   -4.9650   -8.2520 C   0  0  0  0  0  2  0  0  0  0  0  0
    7.2660   -3.8550   -9.2020 C   0  0  0  0  0  0  0  0  0  0  0  0
    7.0040   -2.6580   -9.0090 O   0  0  0  0  0  1  0  0  0  0  0  0
    8.0860   -4.2200  -10.0800 O   0  0  0  0  0  0  0  0  0  0  0  0
   11.9400   -7.0200   -3.1500 C   0  0  0  0  0  2  0  0  0  0  0  0
   13.1300   -7.1300   -4.0700 C   0  0  0  0  0  1  0  0  0  0  0  0
   12.1500   -7.9400   -1.9400 C   0  0  0  0  0  2  0  0  0  0  0  0
   12.6410   -7.2000   -0.7370 C   0  0  0  0  0  0  0  0  0  0  0  0
   11.7220   -7.0760    0.3610 C   0  0  0  0  0  3  0  0  0  0  0  0
   13.9670   -6.6490   -0.5970 C   0  0  0  0  0  3  0  0  0  0  0  0
   12.0420   -6.3090    1.4460 C   0  0  0  0  0  3  0  0  0  0  0  0
   14.2560   -5.8390    0.5250 C   0  0  0  0  0  3  0  0  0  0  0  0
   13.3440   -5.6990    1.5230 C   0  0  0  0  0  0  0  0  0  0  0  0
   13.7920   -4.8930    2.4870 O   0  0  0  0  0  0  0  0  0  0  0  0
   13.0990   -4.8300    3.1500 H   0  0  0  0  0  0  0  0  0  0  0  0
   15.2700   -6.0700   -4.8300 C   0  0  0  0  0  2  0  0  0  0  0  0
   16.3800   -7.0000   -4.5200 C   0  0  0  0  0  1  0  0  0  0  0  0
   15.6700   -4.5900   -4.6500 C   0  0  0  0  0  2  0  0  0  0  0  0
   15.6570   -3.7700   -5.9100 C   0  0  0  0  0  2  0  0  0  0  0  0
   16.6070   -4.2780   -6.9090 C   0  0  0  0  0  0  0  0  0  0  0  0
   16.3040   -4.4370   -8.0980 O   0  0  0  0  0  0  0  0  0  0  0  0
   17.8600   -4.4530   -6.6520 N   0  0  0  0  0  0  0  0  0  0  0  0
   18.3140   -4.3550   -5.7520 H   0  0  0  0  0  0  0  0  0  0  0  0
   18.3580   -4.8550   -7.4330 H   0  0  0  0  0  0  0  0  0  0  0  0
  2  1  1  0  0  0  0
  3  1  1  0  0  0  0
  4  3  1  0  0  0  0
  5  4  1  0  0  0  0
  7  6  1  0  0  0  0
  8  6  1  0  0  0  0
  9  8  1  0  0  0  0
 10  9  1  0  0  0  0
 10 11  1  0  0  0  0
 12 10  2  0  0  0  0
 13 14  1  0  0  0  0
 15 13  1  0  0  0  0
 16 15  1  0  0  0  0
 17 18  1  0  0  0  0
 17 16  1  0  0  0  0
 19 17  2  0  0  0  0
 20 22  1  0  0  0  0
 21 20  1  0  0  0  0
 22 23  1  0  0  0  0
 23 25  2  0  0  0  0
 23 24  1  0  0  0  0
 24 26  2  0  0  0  0
 25 27  1  0  0  0  0
 26 28  1  0  0  0  0
 27 28  2  0  0  0  0
 28 29  1  0  0  0  0
 29 30  1  0  0  0  0
 31 33  1  0  0  0  0
 31 32  1  0  0  0  0
 34 33  1  0  0  0  0
 35 37  1  0  0  0  0
 35 34  1  0  0  0  0
 36 35  2  0  0  0  0
 37 38  1  0  0  0  0
 39 37  1  0  0  0  0
M  END
$$$$

 OpenBabel01152418483D

 39 35  0  0  0  0  0  0  0  0999 V2000
    8.8800   -1.0600   -2.4000 C   0  0  0  0  0  2  0  0  0  0  0  0
    7.5400   -0.7600   -3.0700 C   0  0  0  0  0  1  0  0  0  0  0  0
    9.3400   -2.4900   -2.9100 C   0  0  0  0  0  2  0  0  0  0  0  0
    8.1760   -3.3140   -3.0010 O   0  0  0  0  0  0  0  0  0  0  0  0
    8.4150   -4.2220   -3.1830 H   0  0  0  0  0  0  0  0  0  0  0  0
    6.4600   -0.1400   -5.3000 C   0  0  0  0  0  2  0  0  0  0  0  0
    5.8900   -1.5100   -5.6600 C   0  0  0  0  0  1  0  0  0  0  0  0
    6.9400    0.6300   -6.5500 C   0  0  0  0  0  2  0  0  0  0  0  0
    6.6030    2.1070   -6.6170 C   0  0  0  0  0  2  0  0  0  0  0  0
    7.8610    2.8720   -6.2640 C   0  0  0  0  0  0  0  0  0  0  0  0
    7.8340    4.1560   -6.2460 O   0  0  0  0  0  0  0  0  0  0  0  0
    8.8430    2.2130   -5.8280 O   0  0  0  0  0  1  0  0  0  0  0  0
    6.3900   -4.0000   -5.8800 C   0  0  0  0  0  2  0  0  0  0  0  0
    7.6200   -4.8200   -5.5400 C   0  0  0  0  0  1  0  0  0  0  0  0
    5.7100   -4.5200   -7.2000 C   0  0  0  0  0  2  0  0  0  0  0  0
    4.2940   -5.0880   -6.9360 C   0  0  0  0  0  2  0  0  0  0  0  0
    4.2350   -6.5780   -6.5210 C   0  0  0  0  0  0  0  0  0  0  0  0
    3.1800   -7.1110   -6.1460 O   0  0  0  0  0  1  0  0  0  0  0  0
    5.2750   -7.2470   -6.7360 O   0  0  0  0  0  0  0  0  0  0  0  0
   11.9400   -7.0200   -3.1500 C   0  0  0  0  0  2  0  0  0  0  0  0
   13.1300   -7.1300   -4.0700 C   0  0  0  0  0  1  0  0  0  0  0  0
   12.1500   -7.9400   -1.9400 C   0  0  0  0  0  2  0  0  0  0  0  0
   13.2980   -7.5070   -1.0850 C   0  0  0  0  0  0  0  0  0  0  0  0
   14.3590   -8.4600   -0.9040 C   0  0  0  0  0  3  0  0  0  0  0  0
   13.4230   -6.2050   -0.4760 C   0  0  0  0  0  3  0  0  0  0  0  0
   15.3830   -8.1950   -0.0380 C   0  0  0  0  0  3  0  0  0  0  0  0
   14.4800   -5.9740    0.4340 C   0  0  0  0  0  3  0  0  0  0  0  0
   15.4400   -6.9170    0.6240 C   0  0  0  0  0  0  0  0  0  0  0  0
   16.3430   -6.5240    1.5230 O   0  0  0  0  0  0  0  0  0  0  0  0
   16.9820   -7.2360    1.6150 H   0  0  0  0  0  0  0  0  0  0  0  0
   15.2700   -6.0700   -4.8300 C   0  0  0  0  0  2  0  0  0  0  0  0
   16.3800   -7.0000   -4.5200 C   0  0  0  0  0  1  0  0  0  0  0  0
   15.6700   -4.5900   -4.6500 C   0  0  0  0  0  2  0  0  0  0  0  0
   15.9910   -3.8580   -5.9240 C   0  0  0  0  0  2  0  0  0  0  0  0
   17.2990   -4.2450   -6.4690 C   0  0  0  0  0  0  0  0  0  0  0  0
   17.4190   -4.9570   -7.4730 O   0  0  0  0  0  0  0  0  0  0  0  0
   18.4090   -3.7520   -6.0300 N   0  0  0  0  0  0  0  0  0  0  0  0
   18.5260   -3.1350   -5.2360 H   0  0  0  0  0  0  0  0  0  0  0  0
   19.2140   -4.1640   -6.4800 H   0  0  0  0  0  0  0  0  0  0  0  0
  2  1  1  0  0  0  0
  3  1  1  0  0  0  0
  4  3  1  0  0  0  0
  5  4  1  0  0  0  0
  7  6  1  0  0  0  0
  8  6  1  0  0  0  0
  9  8  1  0  0  0  0
  9 10  1  0  0  0  0
 10 11  2  0  0  0  0
 10 12  1  0  0  0  0
 13 14  1  0  0  0  0
 15 16  1  0  0  0  0
 15 13  1  0  0  0  0
 16 17  1  0  0  0  0
 17 18  1  0  0  0  0
 19 17  2  0  0  0  0
 20 22  1  0  0  0  0
 21 20  1  0  0  0  0
 22 23  1  0  0  0  0
 23 24  2  0  0  0  0
 23 25  1  0  0  0  0
 24 26  1  0  0  0  0
 25 27  2  0  0  0  0
 26 28  2  0  0  0  0
 27 28  1  0  0  0  0
 28 29  1  0  0  0  0
 29 30  1  0  0  0  0
 31 33  1  0  0  0  0
 31 32  1  0  0  0  0
 34 33  1  0  0  0  0
 35 37  1  0  0  0  0
 35 34  1  0  0  0  0
 36 35  2  0  0  0  0
 37 38  1  0  0  0  0
 39 37  1  0  0  0  0
M  END
$$$$

 OpenBabel01152418483D

 39 35  0  0  0  0  0  0  0  0999 V2000
    8.8800   -1.0600   -2.4000 C   0  0  0  0  0  2  0  0  0  0  0  0
    7.5400   -0.7600   -3.0700 C   0  0  0  0  0  1  0  0  0  0  0  0
    9.3400   -2.4900   -2.9100 C   0  0  0  0  0  2  0  0  0  0  0  0
    8.1820   -3.3240   -2.9660 O   0  0  0  0  0  0  0  0  0  0  0  0
    8.4240   -4.2320   -3.1470 H   0  0  0  0  0  0  0  0  0  0  0  0
    6.4600   -0.1400   -5.3000 C   0  0  0  0  0  2  0  0  0  0  0  0
    5.8900   -1.5100   -5.6600 C   0  0  0  0  0  1  0  0  0  0  0  0
    6.9400    0.6300   -6.5500 C   0  0  0  0  0  2  0  0  0  0  0  0
    5.9280    1.5320   -7.2300 C   0  0  0  0  0  2  0  0  0  0  0  0
    6.4320    2.9530   -7.0990 C   0  0  0  0  0  0  0  0  0  0  0  0
    5.9840    3.8570   -7.8930 O   0  0  0  0  0  0  0  0  0  0  0  0
    7.1420    3.2310   -6.0950 O   0  0  0  0  0  1  0  0  0  0  0  0
    6.3900   -4.0000   -5.8800 C   0  0  0  0  0  2  0  0  0  0  0  0
    7.6200   -4.8200   -5.5400 C   0  0  0  0  0  1  0  0  0  0  0  0
    5.7100   -4.5200   -7.2000 C   0  0  0  0  0  2  0  0  0  0  0  0
    4.2710   -5.0320   -6.9460 C   0  0  0  0  0  2  0  0  0  0  0  0
    4.1450   -6.5340   -6.5970 C   0  0  0  0  0  0  0  0  0  0  0  0
    3.0420   -7.0750   -6.4230 O   0  0  0  0  0  1  0  0  0  0  0  0
    5.2070   -7.2010   -6.6570 O   0  0  0  0  0  0  0  0  0  0  0  0
   11.9400   -7.0200   -3.1500 C   0  0  0  0  0  2  0  0  0  0  0  0
   13.1300   -7.1300   -4.0700 C   0  0  0  0  0  1  0  0  0  0  0  0
   12.1500   -7.9400   -1.9400 C   0  0  0  0  0  2  0  0  0  0  0  0
   11.9860   -7.2210   -0.6400 C   0  0  0  0  0  0  0  0  0  0  0  0
   11.8260   -5.7930   -0.7100 C   0  0  0  0  0  3  0  0  0  0  0  0
   11.9380   -7.8600    0.6530 C   0  0  0  0  0  3  0  0  0  0  0  0
   11.7980   -5.0450    0.4330 C   0  0  0  0  0  3  0  0  0  0  0  0
   11.9340   -7.0560    1.8150 C   0  0  0  0  0  3  0  0  0  0  0  0
   11.8360   -5.7040    1.7130 C   0  0  0  0  0  0  0  0  0  0  0  0
   11.8590   -5.1190    2.9110 O   0  0  0  0  0  0  0  0  0  0  0  0
   11.7960   -4.1710    2.7660 H   0  0  0  0  0  0  0  0  0  0  0  0
   15.2700   -6.0700   -4.8300 C   0  0  0  0  0  2  0  0  0  0  0  0
   16.3800   -7.0000   -4.5200 C   0  0  0  0  0  1  0  0  0  0  0  0
   15.6700   -4.5900   -4.6500 C   0  0  0  0  0  2  0  0  0  0  0  0
   16.1840   -3.9150   -5.8910 C   0  0  0  0  0  2  0  0  0  0  0  0
   17.6510   -3.9080   -5.9500 C   0  0  0  0  0  0  0  0  0  0  0  0
   18.3570   -3.6410   -4.9700 O   0  0  0  0  0  0  0  0  0  0  0  0
   18.3090   -4.3240   -6.9810 N   0  0  0  0  0  0  0  0  0  0  0  0
   17.9210   -4.6100   -7.8720 H   0  0  0  0  0  0  0  0  0  0  0  0
   19.3050   -4.2020   -6.8730 H   0  0  0  0  0  0  0  0  0  0  0  0
  2  1  1  0  0  0  0
  3  1  1  0  0  0  0
  4  3  1  0  0  0  0
  5  4  1  0  0  0  0
  7  6  1  0  0  0  0
  8  6  1  0  0  0  0
  9 10  1  0  0  0  0
  9  8  1  0  0  0  0
 10 12  1  0  0  0  0
 11 10  2  0  0  0  0
 13 14  1  0  0  0  0
 15 16  1  0  0  0  0
 15 13  1  0  0  0  0
 16 17  1  0  0  0  0
 17 18  1  0  0  0  0
 19 17  2  0  0  0  0
 20 22  1  0  0  0  0
 21 20  1  0  0  0  0
 22 23  1  0  0  0  0
 23 25  1  0  0  0  0
 24 23  2  0  0  0  0
 24 26  1  0  0  0  0
 25 27  2  0  0  0  0
 26 28  2  0  0  0  0
 28 27  1  0  0  0  0
 28 29  1  0  0  0  0
 30 29  1  0  0  0  0
 31 33  1  0  0  0  0
 31 32  1  0  0  0  0
 34 33  1  0  0  0  0
 35 34  1  0  0  0  0
 35 36  2  0  0  0  0
 37 39  1  0  0  0  0
 37 35  1  0  0  0  0
 38 37  1  0  0  0  0
M  END
$$$$
